
#######################################################################
#
#                 Cambridge Crystallographic Data Centre
#                                CCDC 
#
#######################################################################
#
# If this CIF has been generated from an entry in the Cambridge 
# Structural Database, then it will include bibliographic, chemical, 
# crystal, experimental, refinement or atomic coordinate data resulting 
# from the CCDC's data processing and validation procedures.
#
#######################################################################

data_s5837l
_symmetry_cell_setting           monoclinic
_symmetry_space_group_name_H-M   'P 21/n'
_symmetry_Int_Tables_number      14
_space_group_name_Hall           '-P 2yn'
loop_
_symmetry_equiv_pos_site_id
_symmetry_equiv_pos_as_xyz
1 x,y,z
2 1/2-x,1/2+y,1/2-z
3 -x,-y,-z
4 1/2+x,1/2-y,1/2+z
_cell_length_a                   15.83631(16)
_cell_length_b                   25.2115(3)
_cell_length_c                   21.9795(2)
_cell_angle_alpha                90
_cell_angle_beta                 100.6654(10)
_cell_angle_gamma                90
_cell_volume                     8623.87
loop_
_atom_site_label
_atom_site_type_symbol
_atom_site_fract_x
_atom_site_fract_y
_atom_site_fract_z
Ru02 Ru 0.75551(2) 0.54191(2) 0.74860(2)
O00C O 0.74807(12) 0.62518(10) 0.74943(9)
H00A H 0.719706 0.643625 0.718708
H00B H 0.776746 0.648835 0.773937
N00H N 0.88256(17) 0.54657(10) 0.78337(12)
N00J N 0.73664(16) 0.53919(10) 0.83697(12)
N00M N 0.77288(17) 0.54417(10) 0.66008(13)
N00N N 0.62835(18) 0.54047(10) 0.71512(12)
N00Q N 0.76356(19) 0.46308(12) 0.75028(11)
C00X C 1.04047(19) 0.55657(13) 0.84363(14)
C00Z C 1.0948(2) 0.51034(15) 0.82699(19)
H00C H 1.153773 0.513760 0.849999
H00D H 1.070250 0.476742 0.837873
H00E H 1.095139 0.510960 0.782453
C011 C 1.0760(2) 0.60920(13) 0.82548(16)
H01A H 1.134894 0.613862 0.848275
H01B H 1.076158 0.609305 0.780908
H01C H 1.039986 0.638296 0.835579
C014 C 0.9516(2) 0.55074(12) 0.80845(14)
C016 C 0.7770(3) 0.54527(14) 0.54147(16)
C019 C 0.4672(2) 0.54527(14) 0.66069(17)
C01A C 0.5579(2) 0.54239(12) 0.69264(15)
C01F C 0.4271(2) 0.59596(16) 0.68124(17)
H01D H 0.366925 0.598354 0.660378
H01E H 0.430036 0.595090 0.726156
H01F H 0.458729 0.626882 0.670327
C01K C 0.7292(2) 0.53395(14) 0.88670(15)
C01N C 0.7762(2) 0.54532(12) 0.60881(16)
C01P C 0.7185(3) 0.52370(17) 0.95109(16)
C01S C 1.0350(2) 0.55618(16) 0.91291(16)
H01G H 1.092778 0.559968 0.937793
H01H H 0.998915 0.585716 0.921786
H01I H 1.009807 0.522597 0.923199
C01T C 0.7877(2) 0.36063(16) 0.77205(16)
C01V C 0.7600(3) 0.34977(15) 0.83394(18)
H01J H 0.768224 0.312107 0.844364
H01K H 0.794710 0.371283 0.866396
H01L H 0.699174 0.358984 0.830711
C01W C 0.7742(2) 0.41783(14) 0.75817(16)
C01Z C 0.8840(2) 0.34897(16) 0.77668(18)
H01M H 0.894936 0.311284 0.785860
H01N H 0.901275 0.357733 0.737284
H01O H 0.917302 0.370474 0.809842
C020 C 0.7333(3) 0.32802(17) 0.7199(2)
H02A H 0.741959 0.290118 0.728882
H02B H 0.672408 0.336828 0.717263
H02C H 0.750707 0.336322 0.680508
C023 C 0.7373(3) 0.46467(17) 0.96485(19)
H02D H 0.730655 0.456780 1.007365
H02E H 0.696998 0.442994 0.935919
H02F H 0.796254 0.456603 0.960042
C026 C 0.4673(3) 0.54781(19) 0.59035(18)
H02G H 0.407954 0.549755 0.567611
H02H H 0.498927 0.579320 0.581209
H02I H 0.494957 0.515945 0.577676
C029 C 0.6235(3) 0.53525(18) 0.9548(2)
H02J H 0.614407 0.528776 0.997134
H02K H 0.610053 0.572334 0.943680
H02L H 0.585855 0.511921 0.926104
C02A C 0.4200(3) 0.49601(18) 0.6787(3)
H02M H 0.359638 0.497205 0.657963
H02N H 0.447068 0.463938 0.666008
H02O H 0.423132 0.495506 0.723669
C02G C 0.7337(14) 0.4962(6) 0.5123(10)
H02P H 0.734381 0.496412 0.467809
H02Q H 0.764223 0.464808 0.531292
H02R H 0.674075 0.495344 0.518729
C02L C 0.7793(4) 0.5572(2) 0.9941(2)
H02S H 0.772129 0.550326 1.036756
H02T H 0.838348 0.548655 0.989915
H02U H 0.767685 0.594660 0.984150
C02M C 0.8734(7) 0.5434(5) 0.5367(7)
H02V H 0.878976 0.543240 0.493067
H02W H 0.902797 0.574556 0.557288
H02X H 0.899525 0.511112 0.556893
C02O C 0.7416(15) 0.5991(5) 0.5170(6)
H02Y H 0.740768 0.601089 0.472383
H17 H 0.683051 0.603390 0.524889
H18 H 0.778245 0.627392 0.538101

#END
